<?xml version="1.0" encoding="UTF-8"?>

<!-- generated on 2025-10-15 14:32:40 by Eclipse SUMO duarouter Version 1.21.0
<duarouterConfiguration xmlns:xsi="http://www.w3.org/2001/XMLSchema-instance" xsi:noNamespaceSchemaLocation="http://sumo.dlr.de/xsd/duarouterConfiguration.xsd">

    <input>
        <net-file value="simulations/veins-base/naning.net.xml"/>
        <route-files value="simulations/veins-base/naning-random.trips.xml"/>
    </input>

    <output>
        <output-file value="simulations/veins-base/naning-random.rou.xml"/>
        <alternatives-output value="NUL"/>
    </output>

    <time>
        <begin value="0.0"/>
        <end value="100.0"/>
    </time>

    <report>
        <verbose value="true"/>
        <ignore-errors value="true"/>
        <no-step-log value="true"/>
    </report>

</duarouterConfiguration>
