<?xml version="1.0" encoding="UTF-8"?>
<!-- 
    南宁路网 - 扩展路由配置（70条流）
    用于测试改进的车辆分布
-->
<configuration xmlns:xsi="http://www.w3.org/2001/XMLSchema-instance" 
               xsi:noNamespaceSchemaLocation="http://sumo.dlr.de/xsd/sumoConfiguration.xsd">

    <input>
        <net-file value="naning.net.xml"/>
        <route-files value="naning-expanded.rou.xml"/>
        <additional-files value="rsu.add.xml"/>
    </input>

    <time>
        <begin value="0"/>
        <end value="600"/>
        <step-length value="0.1"/>
    </time>

    <report>
        <xml-validation value="never"/>
        <xml-validation.net value="never"/>
        <no-step-log value="true"/>
    </report>

    <gui_only>
        <start value="true"/>
    </gui_only>

</configuration>


