<?xml version="1.0" encoding="UTF-8"?>

<!-- generated on 2025-10-15 14:33:10.956689 by randomTrips.py v1_21_0+0000-d7b3b481c43
<configuration>
    <net-file value="simulations/veins-base/naning.net.xml"/>
    <output-trip-file value="simulations/veins-base/naning-random.trips.xml"/>
    <route-file value="simulations/veins-base/naning-random.rou.xml"/>
    <fringe-factor value="3"/>
    <min-distance value="500.0"/>
    <end value="100.0"/>
    <period value="0.05"/>
</configuration>
-->

<routes xmlns:xsi="http://www.w3.org/2001/XMLSchema-instance" xsi:noNamespaceSchemaLocation="http://sumo.dlr.de/xsd/routes_file.xsd">
    <trip id="0" depart="0.00" from="395689278#3" to="-1061325223#1"/>
    <trip id="1" depart="0.05" from="1036187479#2" to="1006147294#1"/>
    <trip id="2" depart="0.10" from="497511729#1" to="395910136#3"/>
    <trip id="3" depart="0.15" from="819617107#8" to="-394057405#2"/>
    <trip id="4" depart="0.20" from="253642717#7" to="-118582035#1"/>
    <trip id="5" depart="0.25" from="-922458516#3" to="394074169#0"/>
    <trip id="6" depart="0.30" from="-1059583617" to="-922494953#2"/>
    <trip id="7" depart="0.35" from="395689302#4" to="394289074#4"/>
    <trip id="8" depart="0.40" from="-923687012" to="395214298#1"/>
    <trip id="9" depart="0.45" from="548423292#3" to="-1004711683#3"/>
    <trip id="10" depart="0.50" from="548423282#0" to="396095199#2"/>
    <trip id="11" depart="0.55" from="1061757419#1" to="-797539858#0"/>
    <trip id="12" depart="0.60" from="922494957" to="1191227912#1"/>
    <trip id="13" depart="0.65" from="-394057402#2" to="-394057422#0"/>
    <trip id="14" depart="0.70" from="694747831#8" to="395674214#4"/>
    <trip id="15" depart="0.75" from="548423285" to="497511715#6"/>
    <trip id="16" depart="0.80" from="394287374" to="959178343#1"/>
    <trip id="17" depart="0.85" from="1344499582#2" to="394291901#0"/>
    <trip id="18" depart="0.90" from="650984736" to="395684214#8"/>
    <trip id="19" depart="0.95" from="809963951" to="395211762#5"/>
    <trip id="20" depart="1.00" from="476559330#1" to="-1346164707#1"/>
    <trip id="21" depart="1.05" from="-971252904#5" to="1044653795#3"/>
    <trip id="22" depart="1.10" from="-389877846#0" to="1006497881#1"/>
    <trip id="23" depart="1.15" from="-394057417#0" to="1043631323#2"/>
    <trip id="24" depart="1.20" from="395689275#13" to="1344499580"/>
    <trip id="25" depart="1.25" from="1344499559#0" to="1004711650#1"/>
    <trip id="26" depart="1.30" from="1029533950#3" to="915126728#0"/>
    <trip id="27" depart="1.35" from="395689301#0" to="395680051#5"/>
    <trip id="28" depart="1.40" from="-763935715" to="497511715#4"/>
    <trip id="29" depart="1.45" from="-652143942#4" to="1346164718"/>
    <trip id="30" depart="1.50" from="997763679#0" to="395689292#2"/>
    <trip id="31" depart="1.55" from="394292106#12" to="395910440#5"/>
    <trip id="32" depart="1.60" from="652167451#5" to="548408547"/>
    <trip id="33" depart="1.65" from="-971252933#0" to="-118582059#0"/>
    <trip id="34" depart="1.70" from="1044653820#3" to="1039491509#1"/>
    <trip id="35" depart="1.75" from="-915700240#0" to="915930911#2"/>
    <trip id="36" depart="1.80" from="810345637#3" to="1059583615#0"/>
    <trip id="37" depart="1.85" from="395689314#0" to="1391135195#1"/>
    <trip id="38" depart="1.90" from="839699001#2" to="394057398#2"/>
    <trip id="39" depart="1.95" from="1026108520" to="1036187443"/>
    <trip id="40" depart="2.00" from="394294430#13" to="1036842934#0"/>
    <trip id="41" depart="2.05" from="395213631" to="819617110#5"/>
    <trip id="42" depart="2.10" from="1360050844#1" to="1006086091#0"/>
    <trip id="43" depart="2.15" from="998723790#11" to="394074171#0"/>
    <trip id="44" depart="2.20" from="-394057402#0" to="-1346164709#1"/>
    <trip id="45" depart="2.25" from="-394057430#2" to="395684232#8"/>
    <trip id="46" depart="2.30" from="548408590#7" to="276797790#1"/>
    <trip id="47" depart="2.35" from="-1390081690" to="1346372215#1"/>
    <trip id="48" depart="2.40" from="998723789#7" to="394287366#3"/>
    <trip id="49" depart="2.45" from="938052098" to="809948417"/>
    <trip id="50" depart="2.50" from="-1022859147#1" to="497493741#20"/>
    <trip id="51" depart="2.55" from="395910136#6" to="394287384#2"/>
    <trip id="52" depart="2.60" from="1029533950#3" to="395689292#4"/>
    <trip id="53" depart="2.65" from="-394074154#6" to="389190351#3"/>
    <trip id="54" depart="2.70" from="392546683#4" to="922458516#0"/>
    <trip id="55" depart="2.75" from="810345637#1" to="1036842934#3"/>
    <trip id="56" depart="2.80" from="394074156#0" to="-839699001#1"/>
    <trip id="57" depart="2.85" from="839698993#0" to="810021128"/>
    <trip id="58" depart="2.90" from="1043631313#0" to="395689285#3"/>
    <trip id="59" depart="2.95" from="395680027" to="-652167451#5"/>
    <trip id="60" depart="3.00" from="548408530#13" to="394289064"/>
    <trip id="61" depart="3.05" from="548408555#4" to="394287369#0"/>
    <trip id="62" depart="3.10" from="-1004711651#0" to="1117108221"/>
    <trip id="63" depart="3.15" from="-1044432534#3" to="914959878#0"/>
    <trip id="64" depart="3.20" from="812426885#1" to="650984768"/>
    <trip id="65" depart="3.25" from="1044653784#1" to="-235864251#0"/>
    <trip id="66" depart="3.30" from="812426884#0" to="916911100#0"/>
    <trip id="67" depart="3.35" from="-392710851#5" to="394057426#0"/>
    <trip id="68" depart="3.40" from="-158832116#4" to="548408518#1"/>
    <trip id="69" depart="3.45" from="548408530#4" to="-497511746#3"/>
    <trip id="70" depart="3.50" from="394057404#3" to="394291895#2"/>
    <trip id="71" depart="3.55" from="1026108521#0" to="810021130#4"/>
    <trip id="72" depart="3.60" from="256913684#2" to="1004711655#1"/>
    <trip id="73" depart="3.65" from="394287384#0" to="497511715#6"/>
    <trip id="74" depart="3.70" from="-912508072#0" to="1059567322#0"/>
    <trip id="75" depart="3.75" from="998723789#2" to="395689311#1"/>
    <trip id="76" depart="3.80" from="389190351#2" to="394074175#0"/>
    <trip id="77" depart="3.85" from="-394294431#0" to="1006319958"/>
    <trip id="78" depart="3.90" from="1061359545" to="395214297#0"/>
    <trip id="79" depart="3.95" from="-997763684#1" to="1006147282#1"/>
    <trip id="80" depart="4.00" from="-276797788#0" to="395689275#11"/>
    <trip id="81" depart="4.05" from="-971252904#9" to="838861314#1"/>
    <trip id="82" depart="4.10" from="809681798#4" to="-392710495#10"/>
    <trip id="83" depart="4.15" from="1004711683#3" to="395909419#2"/>
    <trip id="84" depart="4.20" from="-915930914#1" to="-497511788#0"/>
    <trip id="85" depart="4.25" from="915076423#4" to="395211175#2"/>
    <trip id="86" depart="4.30" from="394057402#4" to="548408566"/>
    <trip id="87" depart="4.35" from="548423287" to="-915126730"/>
    <trip id="88" depart="4.40" from="-394057406#0" to="389179062#0"/>
    <trip id="89" depart="4.45" from="256913687#1" to="394057402#7"/>
    <trip id="90" depart="4.50" from="497511702" to="395910136#17"/>
    <trip id="91" depart="4.55" from="996838994#4" to="-394057426#1"/>
    <trip id="92" depart="4.60" from="1390081696#1" to="1284692350#1"/>
    <trip id="93" depart="4.65" from="809963951" to="1036187473"/>
    <trip id="94" depart="4.70" from="-838861299" to="392546690#5"/>
    <trip id="95" depart="4.75" from="253642717#6" to="1044432531#0"/>
    <trip id="96" depart="4.80" from="1006319967#3" to="910917856#2"/>
    <trip id="97" depart="4.85" from="389201742#2" to="809963942"/>
    <trip id="98" depart="4.90" from="394289076#3" to="-1346164717#0"/>
    <trip id="99" depart="4.95" from="998723790#7" to="652143942#1"/>
    <trip id="100" depart="5.00" from="924337428#1" to="911702133#0"/>
    <trip id="101" depart="5.05" from="77972097#3" to="-812426883"/>
    <trip id="102" depart="5.10" from="394057418#5" to="1004711668#6"/>
    <trip id="103" depart="5.15" from="1390081692#2" to="-235864251#3"/>
    <trip id="104" depart="5.20" from="1344499583#1" to="996838994#6"/>
    <trip id="105" depart="5.25" from="1026108521#0" to="548408562#0"/>
    <trip id="106" depart="5.30" from="392546690#5" to="276797790#5"/>
    <trip id="107" depart="5.35" from="922494957" to="998723789#4"/>
    <trip id="108" depart="5.40" from="394292105" to="497493741#11"/>
    <trip id="109" depart="5.45" from="-548423271#0" to="1044653832"/>
    <trip id="110" depart="5.50" from="924337428#0" to="395211763#4"/>
    <trip id="111" depart="5.55" from="394289065" to="497511769"/>
    <trip id="112" depart="5.60" from="-1346164714" to="395213638"/>
    <trip id="113" depart="5.65" from="394074162#1" to="808580083#2"/>
    <trip id="114" depart="5.70" from="-548423298" to="923687012"/>
    <trip id="115" depart="5.75" from="-389877846#1" to="-914959877#3"/>
    <trip id="116" depart="5.80" from="395443499#0" to="395910136#24"/>
    <trip id="117" depart="5.85" from="1004711668#1" to="-497493722#1"/>
    <trip id="118" depart="5.90" from="819617107#1" to="1036187442"/>
    <trip id="119" depart="5.95" from="395443498" to="395684217#2"/>
    <trip id="120" depart="6.00" from="253642695#1" to="395213636"/>
    <trip id="121" depart="6.05" from="394074174#1" to="915110703"/>
    <trip id="122" depart="6.10" from="-915070923#1" to="497493724#6"/>
    <trip id="123" depart="6.15" from="1004711683#6" to="1391135196#0"/>
    <trip id="124" depart="6.20" from="395909420" to="1044653855"/>
    <trip id="125" depart="6.25" from="1044653821" to="497511789#2"/>
    <trip id="126" depart="6.30" from="-276797790#4" to="394057396"/>
    <trip id="127" depart="6.35" from="-276798356#1" to="1004711668#3"/>
    <trip id="128" depart="6.40" from="1026108521#0" to="915076426"/>
    <trip id="129" depart="6.45" from="1344499558#0" to="-808580081#6"/>
    <trip id="130" depart="6.50" from="652143937#1" to="477508903"/>
    <trip id="131" depart="6.55" from="395680051#2" to="996838995#4"/>
    <trip id="132" depart="6.60" from="395690620#13" to="915333962#2"/>
    <trip id="133" depart="6.65" from="-497493723#1" to="-476928657#0"/>
    <trip id="134" depart="6.70" from="-394057422#0" to="394291902#0"/>
    <trip id="135" depart="6.75" from="1036187472" to="395674219#1"/>
    <trip id="136" depart="6.80" from="497493724#1" to="-970946077#4"/>
    <trip id="137" depart="6.85" from="395689273" to="1037240569#2"/>
    <trip id="138" depart="6.90" from="394057424#0" to="838861299"/>
    <trip id="139" depart="6.95" from="694747831#2" to="-394057417#4"/>
    <trip id="140" depart="7.00" from="256913687#1" to="1043631321#1"/>
    <trip id="141" depart="7.05" from="-1004711668#3" to="548408540#3"/>
    <trip id="142" depart="7.10" from="395689275#7" to="1036842922"/>
    <trip id="143" depart="7.15" from="497511734" to="394291899#1"/>
    <trip id="144" depart="7.20" from="276797790#1" to="-1018451755#0"/>
    <trip id="145" depart="7.25" from="-276798364#1" to="819253429#1"/>
    <trip id="146" depart="7.30" from="837932963#14" to="394289074#7"/>
    <trip id="147" depart="7.35" from="652143938#3" to="395213630"/>
    <trip id="148" depart="7.40" from="-497511789#2" to="-497511744#3"/>
    <trip id="149" depart="7.45" from="1044653786" to="819620327"/>
    <trip id="150" depart="7.50" from="548414020#3" to="809948417"/>
    <trip id="151" depart="7.55" from="819617110#19" to="1004711651#0"/>
    <trip id="152" depart="7.60" from="1006319967#1" to="-394074172#2"/>
    <trip id="153" depart="7.65" from="548408556#0" to="819617102#11"/>
    <trip id="154" depart="7.70" from="1391135203#11" to="395684221#5"/>
    <trip id="155" depart="7.75" from="-548423269#1" to="915070923#0"/>
    <trip id="156" depart="7.80" from="810021114" to="970946077#4"/>
    <trip id="157" depart="7.85" from="548423295" to="819199224"/>
    <trip id="158" depart="7.90" from="-1059583610" to="497511732#2"/>
    <trip id="159" depart="7.95" from="1053249304#4" to="915070927#2"/>
    <trip id="160" depart="8.00" from="548423272#0" to="810021111#1"/>
    <trip id="161" depart="8.05" from="548423295" to="1037240573#6"/>
    <trip id="162" depart="8.10" from="548408579#0" to="-394294431#0"/>
    <trip id="163" depart="8.15" from="810021130#2" to="809681798#1"/>
    <trip id="164" depart="8.20" from="-924337428#1" to="623829280#1"/>
    <trip id="165" depart="8.25" from="392710851#0" to="1044653863#1"/>
    <trip id="166" depart="8.30" from="548414019#3" to="1006319967#4"/>
    <trip id="167" depart="8.35" from="-1059567324" to="-915700240#0"/>
    <trip id="168" depart="8.40" from="1053010068" to="810021114"/>
    <trip id="169" depart="8.45" from="923687060#0" to="1044432532"/>
    <trip id="170" depart="8.50" from="395689284#1" to="1391135208#1"/>
    <trip id="171" depart="8.55" from="996838993#0" to="394287381#1"/>
    <trip id="172" depart="8.60" from="915126724" to="-476928657#0"/>
    <trip id="173" depart="8.65" from="924337473" to="-839699001#0"/>
    <trip id="174" depart="8.70" from="923687056" to="1037240573#2"/>
    <trip id="175" depart="8.75" from="-394057426#0" to="389190351#2"/>
    <trip id="176" depart="8.80" from="497493913#0" to="1059583610"/>
    <trip id="177" depart="8.85" from="395674214#3" to="394074171#16"/>
    <trip id="178" depart="8.90" from="1346164708" to="395211762#1"/>
    <trip id="179" depart="8.95" from="1006404304" to="497493703#5"/>
    <trip id="180" depart="9.00" from="-1004711651#5" to="910917858#2"/>
    <trip id="181" depart="9.05" from="394287379#2" to="497493741#16"/>
    <trip id="182" depart="9.10" from="497511737#0" to="395910135#0"/>
    <trip id="183" depart="9.15" from="1329395653#0" to="-392710495#0"/>
    <trip id="184" depart="9.20" from="395690620#16" to="118582050#4"/>
    <trip id="185" depart="9.25" from="1044653815#6" to="77972097#1"/>
    <trip id="186" depart="9.30" from="497493724#8" to="1044653856#0"/>
    <trip id="187" depart="9.35" from="1044653788#0" to="158832115"/>
    <trip id="188" depart="9.40" from="1390081696#0" to="1044653822#4"/>
    <trip id="189" depart="9.45" from="-476027536#1" to="256913690#6"/>
    <trip id="190" depart="9.50" from="915126728#1" to="395910136#32"/>
    <trip id="191" depart="9.55" from="837932963#1" to="395684214#10"/>
    <trip id="192" depart="9.60" from="1043631321#0" to="394291893#0"/>
    <trip id="193" depart="9.65" from="-1004711650#2" to="1044653787#1"/>
    <trip id="194" depart="9.70" from="276798361#0" to="395211763#7"/>
    <trip id="195" depart="9.75" from="395689313#2" to="394057402#12"/>
    <trip id="196" depart="9.80" from="389201736" to="1004711668#6"/>
    <trip id="197" depart="9.85" from="394057402#6" to="837932963#14"/>
    <trip id="198" depart="9.90" from="548414020#2" to="-819199223#0"/>
    <trip id="199" depart="9.95" from="-392710851#2" to="394074172#5"/>
    <trip id="200" depart="10.00" from="395689270#4" to="118582060#5"/>
    <trip id="201" depart="10.05" from="623829290" to="497511788#3"/>
    <trip id="202" depart="10.10" from="395910130#1" to="1006319958"/>
    <trip id="203" depart="10.15" from="-910917857#2" to="-1061325222#0"/>
    <trip id="204" depart="10.20" from="1006147294#0" to="394057414#1"/>
    <trip id="205" depart="10.25" from="797539858#2" to="-392710495#7"/>
    <trip id="206" depart="10.30" from="1391135254" to="395689271#0"/>
    <trip id="207" depart="10.35" from="-839699002" to="396095194#2"/>
    <trip id="208" depart="10.40" from="394057429#5" to="1029533950#4"/>
    <trip id="209" depart="10.45" from="395689317#0" to="-1004711668#9"/>
    <trip id="210" depart="10.50" from="497511786#3" to="548408538#8"/>
    <trip id="211" depart="10.55" from="-394057420#1" to="276798361#4"/>
    <trip id="212" depart="10.60" from="-808580083#2" to="922494960"/>
    <trip id="213" depart="10.65" from="394074171#3" to="-1346164716#3"/>
    <trip id="214" depart="10.70" from="392710495#0" to="548423272#1"/>
    <trip id="215" depart="10.75" from="395909412#4" to="996838995#7"/>
    <trip id="216" depart="10.80" from="395443500#0" to="920857616"/>
    <trip id="217" depart="10.85" from="819617107#4" to="395680073"/>
    <trip id="218" depart="10.90" from="497493724#6" to="394074168#1"/>
    <trip id="219" depart="10.95" from="650984759" to="394291893#0"/>
    <trip id="220" depart="11.00" from="819617110#11" to="497511744#0"/>
    <trip id="221" depart="11.05" from="394057404#1" to="1036842904"/>
    <trip id="222" depart="11.10" from="1006319959" to="395689284#1"/>
    <trip id="223" depart="11.15" from="548408530#4" to="394282520#2"/>
    <trip id="224" depart="11.20" from="395684226#2" to="1043631317"/>
    <trip id="225" depart="11.25" from="-389190335#7" to="1044653784#1"/>
    <trip id="226" depart="11.30" from="1036187470#4" to="1061359544"/>
    <trip id="227" depart="11.35" from="394287384#4" to="-526790519#0"/>
    <trip id="228" depart="11.40" from="1004711646#1" to="396095191#2"/>
    <trip id="229" depart="11.45" from="476928657#0" to="-276798364#1"/>
    <trip id="230" depart="11.50" from="1391135203#6" to="394289073#4"/>
    <trip id="231" depart="11.55" from="253642717#1" to="838861295"/>
    <trip id="232" depart="11.60" from="395213625" to="396095191#9"/>
    <trip id="233" depart="11.65" from="809681795#0" to="548408530#5"/>
    <trip id="234" depart="11.70" from="1344499585#3" to="-1004711683#0"/>
    <trip id="235" depart="11.75" from="1191227912#0" to="497511790#11"/>
    <trip id="236" depart="11.80" from="808580083#1" to="922458515"/>
    <trip id="237" depart="11.85" from="253642695#0" to="497511754#2"/>
    <trip id="238" depart="11.90" from="394289073#8" to="395674214#2"/>
    <trip id="239" depart="11.95" from="-923687012" to="1006086091#0"/>
    <trip id="240" depart="12.00" from="389190335#1" to="-1159648782#2"/>
    <trip id="241" depart="12.05" from="1061325223#0" to="395910136#6"/>
    <trip id="242" depart="12.10" from="1391135193#2" to="-810021127#0"/>
    <trip id="243" depart="12.15" from="394057399#4" to="-497511746#0"/>
    <trip id="244" depart="12.20" from="395684217#0" to="-1061359551#2"/>
    <trip id="245" depart="12.25" from="1348440717#2" to="394294432#3"/>
    <trip id="246" depart="12.30" from="-1061325222#0" to="395689295#1"/>
    <trip id="247" depart="12.35" from="-497493742#0" to="394057399#7"/>
    <trip id="248" depart="12.40" from="-1344499585#4" to="1346164717#3"/>
    <trip id="249" depart="12.45" from="-915930911#0" to="1159648776#1"/>
    <trip id="250" depart="12.50" from="548408528" to="1346164717#3"/>
    <trip id="251" depart="12.55" from="497511788#2" to="650984771"/>
    <trip id="252" depart="12.60" from="1006319971#1" to="-394057402#10"/>
    <trip id="253" depart="12.65" from="-1044432534#3" to="394289064"/>
    <trip id="254" depart="12.70" from="999516267" to="1329395648"/>
    <trip id="255" depart="12.75" from="395689302#5" to="548408556#3"/>
    <trip id="256" depart="12.80" from="395689305#0" to="497511790#4"/>
    <trip id="257" depart="12.85" from="916911101#2" to="-923038052#1"/>
    <trip id="258" depart="12.90" from="-1053010068" to="-652167451#3"/>
    <trip id="259" depart="12.95" from="-403870722#0" to="395909419#4"/>
    <trip id="260" depart="13.00" from="394294430#4" to="1006086086"/>
    <trip id="261" depart="13.05" from="396095197#2" to="548408531"/>
    <trip id="262" depart="13.10" from="-652167451#11" to="395680041"/>
    <trip id="263" depart="13.15" from="497511746#6" to="-476559354"/>
    <trip id="264" depart="13.20" from="637022437#0" to="923687058#2"/>
    <trip id="265" depart="13.25" from="-394057425" to="-1061325227"/>
    <trip id="266" depart="13.30" from="1044653795#3" to="395910136#32"/>
    <trip id="267" depart="13.35" from="922494961" to="1391135203#1"/>
    <trip id="268" depart="13.40" from="497493722#0" to="-392710851#8"/>
    <trip id="269" depart="13.45" from="395910442#6" to="395684232#7"/>
    <trip id="270" depart="13.50" from="-394057417#12" to="548408540#8"/>
    <trip id="271" depart="13.55" from="808502328" to="395486798#1"/>
    <trip id="272" depart="13.60" from="-394294431#0" to="996838994#11"/>
    <trip id="273" depart="13.65" from="548408556#8" to="1311975176"/>
    <trip id="274" depart="13.70" from="276797790#4" to="1346164704#3"/>
    <trip id="275" depart="13.75" from="394074166#1" to="1311041591#3"/>
    <trip id="276" depart="13.80" from="797539858#2" to="650984676#0"/>
    <trip id="277" depart="13.85" from="-394057419#0" to="923687012"/>
    <trip id="278" depart="13.90" from="395689275#13" to="650984725#0"/>
    <trip id="279" depart="13.95" from="477723746#0" to="389190356"/>
    <trip id="280" depart="14.00" from="497511726#0" to="923687058#5"/>
    <trip id="281" depart="14.05" from="1036187442" to="548423292#2"/>
    <trip id="282" depart="14.10" from="394287379#1" to="394057424#10"/>
    <trip id="283" depart="14.15" from="389190335#0" to="497511724"/>
    <trip id="284" depart="14.20" from="1036187439#0" to="808580082#0"/>
    <trip id="285" depart="14.25" from="650984761" to="-394057405#1"/>
    <trip id="286" depart="14.30" from="819199221#1" to="1029533950#3"/>
    <trip id="287" depart="14.35" from="394057395" to="395680052#3"/>
    <trip id="288" depart="14.40" from="1344499583#1" to="-1159648782#1"/>
    <trip id="289" depart="14.45" from="808580081#0" to="-910917858#1"/>
    <trip id="290" depart="14.50" from="-915930911#2" to="548423258#5"/>
    <trip id="291" depart="14.55" from="1061757422#0" to="819199221#2"/>
    <trip id="292" depart="14.60" from="396095199#2" to="1043631320"/>
    <trip id="293" depart="14.65" from="-1018451755#4" to="916911101#1"/>
    <trip id="294" depart="14.70" from="-392710851#5" to="497493741#18"/>
    <trip id="295" depart="14.75" from="394057424#0" to="526790515#0"/>
    <trip id="296" depart="14.80" from="395910442#6" to="395689302#4"/>
    <trip id="297" depart="14.85" from="394057424#8" to="548414017#1"/>
    <trip id="298" depart="14.90" from="-394057402#3" to="1006147287"/>
    <trip id="299" depart="14.95" from="395910443#4" to="1053249287#0"/>
    <trip id="300" depart="15.00" from="395211763#5" to="394057410#1"/>
    <trip id="301" depart="15.05" from="394283478#0" to="276798364#1"/>
    <trip id="302" depart="15.10" from="497511744#2" to="118582057#1"/>
    <trip id="303" depart="15.15" from="396095200" to="1043631302#0"/>
    <trip id="304" depart="15.20" from="1006319968" to="-497493723#0"/>
    <trip id="305" depart="15.25" from="-839698993#1" to="-497493722#0"/>
    <trip id="306" depart="15.30" from="394287371" to="548408530#13"/>
    <trip id="307" depart="15.35" from="-812426885#4" to="1005723342"/>
    <trip id="308" depart="15.40" from="394057417#9" to="497493913#0"/>
    <trip id="309" depart="15.45" from="970946077#9" to="394283472"/>
    <trip id="310" depart="15.50" from="1036842902#0" to="-394074154#2"/>
    <trip id="311" depart="15.55" from="-839699002" to="1006319967#3"/>
    <trip id="312" depart="15.60" from="-810021104#2" to="-1037240573#1"/>
    <trip id="313" depart="15.65" from="394287366#4" to="1043631313#1"/>
    <trip id="314" depart="15.70" from="970921656#2" to="394291902#1"/>
    <trip id="315" depart="15.75" from="396095191#6" to="-497511743#2"/>
    <trip id="316" depart="15.80" from="810021123#4" to="394060507#0"/>
    <trip id="317" depart="15.85" from="810021130#4" to="395211760#7"/>
    <trip id="318" depart="15.90" from="394057401#0" to="389347265"/>
    <trip id="319" depart="15.95" from="-812426885#1" to="-1346164717#3"/>
    <trip id="320" depart="16.00" from="915333962#0" to="394057417#5"/>
    <trip id="321" depart="16.05" from="650984676#1" to="1391135211"/>
    <trip id="322" depart="16.10" from="-276798361#1" to="395689270#7"/>
    <trip id="323" depart="16.15" from="-1346164707#2" to="-652143945#4"/>
    <trip id="324" depart="16.20" from="394294430#19" to="1044653862#2"/>
    <trip id="325" depart="16.25" from="997763684#1" to="-497493698"/>
    <trip id="326" depart="16.30" from="548408530#20" to="395680028#4"/>
    <trip id="327" depart="16.35" from="548408590#11" to="1006319963#1"/>
    <trip id="328" depart="16.40" from="394074174#0" to="392710495#2"/>
    <trip id="329" depart="16.45" from="389201742#0" to="809681800"/>
    <trip id="330" depart="16.50" from="997763679#2" to="1044653863#2"/>
    <trip id="331" depart="16.55" from="395684214#5" to="395680051#8"/>
    <trip id="332" depart="16.60" from="497511732#3" to="916911100#2"/>
    <trip id="333" depart="16.65" from="-915126731" to="1004711651#4"/>
    <trip id="334" depart="16.70" from="395690618#1" to="-808580081#3"/>
    <trip id="335" depart="16.75" from="-808580081#2" to="-392710851#4"/>
    <trip id="336" depart="16.80" from="-1004711655#3" to="392710495#2"/>
    <trip id="337" depart="16.85" from="395443494" to="1044653815#5"/>
    <trip id="338" depart="16.90" from="1004711650#0" to="497493699#3"/>
    <trip id="339" depart="16.95" from="396095200" to="392710851#13"/>
    <trip id="340" depart="17.00" from="395910441#0" to="910917856#4"/>
    <trip id="341" depart="17.05" from="548408584" to="395684232#14"/>
    <trip id="342" depart="17.10" from="395690618#4" to="915095248"/>
    <trip id="343" depart="17.15" from="256913690#5" to="394289074#3"/>
    <trip id="344" depart="17.20" from="395689301#0" to="839698993#2"/>
    <trip id="345" depart="17.25" from="650984707" to="-392710495#12"/>
    <trip id="346" depart="17.30" from="-652143945#3" to="1053249291"/>
    <trip id="347" depart="17.35" from="497511754#1" to="395211174#0"/>
    <trip id="348" depart="17.40" from="1037240569#2" to="-497511730#0"/>
    <trip id="349" depart="17.45" from="395910441#5" to="396095200"/>
    <trip id="350" depart="17.50" from="915700237" to="394074166#2"/>
    <trip id="351" depart="17.55" from="394057429#3" to="-394057401#0"/>
    <trip id="352" depart="17.60" from="-118582060#13" to="389190335#0"/>
    <trip id="353" depart="17.65" from="1044653854" to="1036187478"/>
    <trip id="354" depart="17.70" from="-394057402#10" to="923687015"/>
    <trip id="355" depart="17.75" from="652143942#3" to="395211761#2"/>
    <trip id="356" depart="17.80" from="920857616" to="998723790#9"/>
    <trip id="357" depart="17.85" from="395910130#0" to="1043631298"/>
    <trip id="358" depart="17.90" from="-118582060#2" to="526790509#3"/>
    <trip id="359" depart="17.95" from="394057402#0" to="395689313#2"/>
    <trip id="360" depart="18.00" from="839767727#2" to="-910917857#2"/>
    <trip id="361" depart="18.05" from="395213635" to="395689278#0"/>
    <trip id="362" depart="18.10" from="394057426#1" to="-394057417#10"/>
    <trip id="363" depart="18.15" from="118582059#3" to="118582060#11"/>
    <trip id="364" depart="18.20" from="395909418#2" to="809681796#4"/>
    <trip id="365" depart="18.25" from="1053249289#1" to="396095191#1"/>
    <trip id="366" depart="18.30" from="1037240569#0" to="915930914#1"/>
    <trip id="367" depart="18.35" from="554919683#2" to="394291896#1"/>
    <trip id="368" depart="18.40" from="392546690#4" to="1059583615#0"/>
    <trip id="369" depart="18.45" from="1044653857#1" to="924337433"/>
    <trip id="370" depart="18.50" from="1391135193#2" to="394074172#2"/>
    <trip id="371" depart="18.55" from="997703599#2" to="395690618#0"/>
    <trip id="372" depart="18.60" from="394289066" to="253642695#4"/>
    <trip id="373" depart="18.65" from="-819199223#2" to="1344499570"/>
    <trip id="374" depart="18.70" from="497511790#9" to="395684232#15"/>
    <trip id="375" depart="18.75" from="548370126#0" to="-970946077#4"/>
    <trip id="376" depart="18.80" from="394289075#3" to="914959869#1"/>
    <trip id="377" depart="18.85" from="389190351#2" to="396095199#3"/>
    <trip id="378" depart="18.90" from="-394294431#1" to="959178343#1"/>
    <trip id="379" depart="18.95" from="395680027" to="1022859142#6"/>
    <trip id="380" depart="19.00" from="-548423299" to="394291897"/>
    <trip id="381" depart="19.05" from="394291895#1" to="-394057417#7"/>
    <trip id="382" depart="19.10" from="997763682#0" to="839767743#2"/>
    <trip id="383" depart="19.15" from="392710851#2" to="-477723747#0"/>
    <trip id="384" depart="19.20" from="650984778" to="394074163#1"/>
    <trip id="385" depart="19.25" from="497493723#1" to="394074170#7"/>
    <trip id="386" depart="19.30" from="1036187476#0" to="652143938#1"/>
    <trip id="387" depart="19.35" from="994869629" to="1029533950#3"/>
    <trip id="388" depart="19.40" from="394291894#0" to="1348440717#2"/>
    <trip id="389" depart="19.45" from="875352211#13" to="394074170#4"/>
    <trip id="390" depart="19.50" from="812426885#4" to="810021111#1"/>
    <trip id="391" depart="19.55" from="1036787895" to="548408590#2"/>
    <trip id="392" depart="19.60" from="1393214375" to="915095250#1"/>
    <trip id="393" depart="19.65" from="394074167#10" to="650975235#2"/>
    <trip id="394" depart="19.70" from="1036842901" to="1044653848"/>
    <trip id="395" depart="19.75" from="395213642#2" to="998723790#6"/>
    <trip id="396" depart="19.80" from="394057424#3" to="-652143945#2"/>
    <trip id="397" depart="19.85" from="394287380" to="1311041601"/>
    <trip id="398" depart="19.90" from="394291895#0" to="394289073#8"/>
    <trip id="399" depart="19.95" from="392546693#0" to="1061757419#0"/>
    <trip id="400" depart="20.00" from="-819202902#3" to="396095197#4"/>
    <trip id="401" depart="20.05" from="395211174#3" to="1018451755#2"/>
    <trip id="402" depart="20.10" from="548408542#8" to="-1344504681"/>
    <trip id="403" depart="20.15" from="497511743#1" to="477723746#2"/>
    <trip id="404" depart="20.20" from="548423298" to="1348440721#1"/>
    <trip id="405" depart="20.25" from="395690620#14" to="650977564"/>
    <trip id="406" depart="20.30" from="996838992#0" to="394074156#1"/>
    <trip id="407" depart="20.35" from="-118582059#0" to="394074167#10"/>
    <trip id="408" depart="20.40" from="395214297#0" to="810021126"/>
    <trip id="409" depart="20.45" from="810021132#2" to="389347265"/>
    <trip id="410" depart="20.50" from="394282520#1" to="394057391"/>