<?xml version='1.0' encoding='UTF-8'?>
<additional>
	<poi id="rsu_junc_12877020542" type="rsu_intersection" color="0,255,0" lane="875352211#5_0" pos="5.0" />
	<poi id="rsu_junc_12877020543" type="rsu_intersection" color="0,255,0" lane="-1391135246#2_0" pos="5.0" />
	<poi id="rsu_junc_12877020552" type="rsu_intersection" color="0,255,0" lane="875352211#7_0" pos="5.0" />
	<poi id="rsu_junc_12877020553" type="rsu_intersection" color="0,255,0" lane="-1391135247#2_0" pos="5.0" />
	<poi id="rsu_junc_1333458728" type="rsu_intersection" color="0,255,0" lane="548408555#1_0" pos="5.0" />
	<poi id="rsu_junc_1333458926" type="rsu_intersection" color="0,255,0" lane="118582035#0_0" pos="5.0" />
	<poi id="rsu_junc_1333458942" type="rsu_intersection" color="0,255,0" lane="548408556#5_0" pos="5.0" />
	<poi id="rsu_junc_1333458950" type="rsu_intersection" color="0,255,0" lane="1344499585#2_0" pos="5.0" />
	<poi id="rsu_junc_1333459630" type="rsu_intersection" color="0,255,0" lane="1044653787#0_0" pos="5.0" />
	<poi id="rsu_junc_1333459637" type="rsu_intersection" color="0,255,0" lane="1044653788#2_0" pos="5.0" />
	<poi id="rsu_junc_1333459645" type="rsu_intersection" color="0,255,0" lane="1044653788#0_0" pos="5.0" />
	<poi id="rsu_junc_2811736114" type="rsu_intersection" color="0,255,0" lane="548408556#8_0" pos="5.0" />
	<poi id="rsu_junc_3251507439" type="rsu_intersection" color="0,255,0" lane="318777629#6_0" pos="5.0" />
	<poi id="rsu_junc_3263343886" type="rsu_intersection" color="0,255,0" lane="810021130#0_0" pos="5.0" />
	<poi id="rsu_junc_3263343889" type="rsu_intersection" color="0,255,0" lane="256913690#4_0" pos="5.0" />
	<poi id="rsu_junc_3957645294" type="rsu_intersection" color="0,255,0" lane="1036787959#0_0" pos="5.0" />
	<poi id="rsu_junc_3971019833" type="rsu_intersection" color="0,255,0" lane="394074171#16_0" pos="5.0" />
	<poi id="rsu_junc_3973039205" type="rsu_intersection" color="0,255,0" lane="395213642#2_0" pos="5.0" />
	<poi id="rsu_junc_3973039228" type="rsu_intersection" color="0,255,0" lane="394289073#2_0" pos="5.0" />
	<poi id="rsu_junc_3973099057" type="rsu_intersection" color="0,255,0" lane="998723789#4_0" pos="5.0" />
	<poi id="rsu_junc_3985070489" type="rsu_intersection" color="0,255,0" lane="1043631321#1_0" pos="5.0" />
	<poi id="rsu_junc_3985070502" type="rsu_intersection" color="0,255,0" lane="394289073#1_0" pos="5.0" />
	<poi id="rsu_junc_3985070528" type="rsu_intersection" color="0,255,0" lane="1043631321#0_0" pos="5.0" />
	<poi id="rsu_junc_3985070968" type="rsu_intersection" color="0,255,0" lane="253642717#7_0" pos="5.0" />
	<poi id="rsu_junc_3985071023" type="rsu_intersection" color="0,255,0" lane="1043631323#0_0" pos="5.0" />
	<poi id="rsu_junc_3985155900" type="rsu_intersection" color="0,255,0" lane="394289073#5_0" pos="5.0" />
	<poi id="rsu_junc_3985156367" type="rsu_intersection" color="0,255,0" lane="998723790#12_0" pos="5.0" />
	<poi id="rsu_junc_3985183247" type="rsu_intersection" color="0,255,0" lane="970921656#1_0" pos="5.0" />
	<poi id="rsu_junc_3987092421" type="rsu_intersection" color="0,255,0" lane="395909412#6_0" pos="5.0" />
	<poi id="rsu_junc_3987094092" type="rsu_intersection" color="0,255,0" lane="395909419#4_0" pos="5.0" />
	<poi id="rsu_junc_3987094124" type="rsu_intersection" color="0,255,0" lane="394074163#1_0" pos="5.0" />
	<poi id="rsu_junc_3987100645" type="rsu_intersection" color="0,255,0" lane="395910136#11_0" pos="5.0" />
	<poi id="rsu_junc_3987105246" type="rsu_intersection" color="0,255,0" lane="1346372281#2_0" pos="5.0" />
	<poi id="rsu_junc_3988974815" type="rsu_intersection" color="0,255,0" lane="996838993#1_0" pos="5.0" />
	<poi id="rsu_junc_3988975454" type="rsu_intersection" color="0,255,0" lane="996838993#0_0" pos="5.0" />
	<poi id="rsu_junc_3988975589" type="rsu_intersection" color="0,255,0" lane="996838992#0_0" pos="5.0" />
	<poi id="rsu_junc_4890693877" type="rsu_intersection" color="0,255,0" lane="118582060#0_0" pos="5.0" />
	<poi id="rsu_junc_5239391801" type="rsu_intersection" color="0,255,0" lane="1391135203#3_0" pos="5.0" />
	<poi id="rsu_junc_5297995111" type="rsu_intersection" color="0,255,0" lane="548408588#1_0" pos="5.0" />
	<poi id="rsu_junc_5297995112" type="rsu_intersection" color="0,255,0" lane="548408588#2_0" pos="5.0" />
	<poi id="rsu_junc_5297995116" type="rsu_intersection" color="0,255,0" lane="998723790#4_0" pos="5.0" />
	<poi id="rsu_junc_5297995117" type="rsu_intersection" color="0,255,0" lane="548408590#2_0" pos="5.0" />
	<poi id="rsu_junc_5297995124" type="rsu_intersection" color="0,255,0" lane="548408590#7_0" pos="5.0" />
	<poi id="rsu_junc_5298127127" type="rsu_intersection" color="0,255,0" lane="548423258#4_0" pos="5.0" />
	<poi id="rsu_junc_6105499314" type="rsu_intersection" color="0,255,0" lane="548408540#2_0" pos="5.0" />
	<poi id="rsu_junc_6105545810" type="rsu_intersection" color="0,255,0" lane="395910136#35_0" pos="5.0" />
	<poi id="rsu_junc_7573096399" type="rsu_intersection" color="0,255,0" lane="810021132#1_0" pos="5.0" />
	<poi id="rsu_junc_7573096400" type="rsu_intersection" color="0,255,0" lane="548414020#1_0" pos="5.0" />
	<poi id="rsu_junc_7573096410" type="rsu_intersection" color="0,255,0" lane="810021133#0_0" pos="5.0" />
	<poi id="rsu_junc_7573096411" type="rsu_intersection" color="0,255,0" lane="810021133#1_0" pos="5.0" />
	<poi id="rsu_junc_7653828540" type="rsu_intersection" color="0,255,0" lane="548408555#3_0" pos="5.0" />
	<poi id="rsu_junc_7653828552" type="rsu_intersection" color="0,255,0" lane="395910136#23_0" pos="5.0" />
	<poi id="rsu_junc_7653828561" type="rsu_intersection" color="0,255,0" lane="875352211#19_0" pos="5.0" />
	<poi id="rsu_junc_8500595773" type="rsu_intersection" color="0,255,0" lane="915110707#0_0" pos="5.0" />
	<poi id="rsu_junc_8502310652" type="rsu_intersection" color="0,255,0" lane="394074159#0_0" pos="5.0" />
	<poi id="rsu_junc_9186852480" type="rsu_intersection" color="0,255,0" lane="1044653795#1_0" pos="5.0" />
	<poi id="rsu_junc_9284649425" type="rsu_intersection" color="0,255,0" lane="1006319966_0" pos="5.0" />
	<poi id="rsu_junc_9407538184" type="rsu_intersection" color="0,255,0" lane="118582060#10_0" pos="5.0" />
	<poi id="rsu_junc_9407538185" type="rsu_intersection" color="0,255,0" lane="118582060#12_0" pos="5.0" />
	<poi id="rsu_junc_9407538187" type="rsu_intersection" color="0,255,0" lane="118582060#9_0" pos="5.0" />
	<poi id="rsu_junc_9407538188" type="rsu_intersection" color="0,255,0" lane="118582060#8_0" pos="5.0" />
	<poi id="rsu_junc_9407538193" type="rsu_intersection" color="0,255,0" lane="118582060#6_0" pos="5.0" />
	<poi id="rsu_junc_9407538194" type="rsu_intersection" color="0,255,0" lane="118582060#4_0" pos="5.0" />
	<poi id="rsu_junc_9407538195" type="rsu_intersection" color="0,255,0" lane="-497511754#1_0" pos="5.0" />
	<poi id="rsu_junc_9407538196" type="rsu_intersection" color="0,255,0" lane="118582060#2_0" pos="5.0" />
	<poi id="rsu_junc_9407538197" type="rsu_intersection" color="0,255,0" lane="1004711668#0_0" pos="5.0" />
	<poi id="rsu_junc_9407538198" type="rsu_intersection" color="0,255,0" lane="1391135204#0_0" pos="5.0" />
	<poi id="rsu_junc_9407538199" type="rsu_intersection" color="0,255,0" lane="395910136#21_0" pos="5.0" />
	<poi id="rsu_junc_9407538203" type="rsu_intersection" color="0,255,0" lane="-1019895567#4_0" pos="5.0" />
	<poi id="rsu_junc_9407538204" type="rsu_intersection" color="0,255,0" lane="253642695#3_0" pos="5.0" />
	<poi id="rsu_junc_9407538206" type="rsu_intersection" color="0,255,0" lane="810345637#0_0" pos="5.0" />
	<poi id="rsu_junc_9407538212" type="rsu_intersection" color="0,255,0" lane="497493709#2_0" pos="5.0" />
	<poi id="rsu_junc_9407538213" type="rsu_intersection" color="0,255,0" lane="694747831#2_0" pos="5.0" />
	<poi id="rsu_junc_9407538214" type="rsu_intersection" color="0,255,0" lane="548408540#4_0" pos="5.0" />
	<poi id="rsu_junc_9407538215" type="rsu_intersection" color="0,255,0" lane="548408542#5_0" pos="5.0" />
	<poi id="rsu_junc_9407538216" type="rsu_intersection" color="0,255,0" lane="548408542#7_0" pos="5.0" />
	<poi id="rsu_junc_9407554617" type="rsu_intersection" color="0,255,0" lane="548408530#9_0" pos="5.0" />
	<poi id="rsu_junc_9407554618" type="rsu_intersection" color="0,255,0" lane="548408530#11_0" pos="5.0" />
	<poi id="rsu_junc_9407554619" type="rsu_intersection" color="0,255,0" lane="1391135203#9_0" pos="5.0" />
	<poi id="rsu_junc_9407554620" type="rsu_intersection" color="0,255,0" lane="1053249304#1_0" pos="5.0" />
	<poi id="rsu_junc_9407554621" type="rsu_intersection" color="0,255,0" lane="1053249287#0_0" pos="5.0" />
	<poi id="rsu_junc_9407554622" type="rsu_intersection" color="0,255,0" lane="395690620#16_0" pos="5.0" />
	<poi id="rsu_junc_9407554623" type="rsu_intersection" color="0,255,0" lane="1053249304#4_0" pos="5.0" />
	<poi id="rsu_junc_9407554624" type="rsu_intersection" color="0,255,0" lane="1044653787#2_0" pos="5.0" />
	<poi id="rsu_junc_9407554625" type="rsu_intersection" color="0,255,0" lane="970946077#1_0" pos="5.0" />
	<poi id="rsu_junc_9407554626" type="rsu_intersection" color="0,255,0" lane="1006319967#2_0" pos="5.0" />
	<poi id="rsu_junc_9407554627" type="rsu_intersection" color="0,255,0" lane="395910136#9_0" pos="5.0" />
	<poi id="rsu_junc_9407554628" type="rsu_intersection" color="0,255,0" lane="1053249289#0_0" pos="5.0" />
	<poi id="rsu_junc_9407554629" type="rsu_intersection" color="0,255,0" lane="1053249301#1_0" pos="5.0" />
	<poi id="rsu_junc_9407554630" type="rsu_intersection" color="0,255,0" lane="395910136#3_0" pos="5.0" />
	<poi id="rsu_junc_9407554631" type="rsu_intersection" color="0,255,0" lane="1006319967#7_0" pos="5.0" />
	<poi id="rsu_junc_9407554632" type="rsu_intersection" color="0,255,0" lane="922494944#1_0" pos="5.0" />
	<poi id="rsu_junc_9433494185" type="rsu_intersection" color="0,255,0" lane="1348440717#1_0" pos="5.0" />
	<poi id="rsu_junc_9433494186" type="rsu_intersection" color="0,255,0" lane="1022859142#2_0" pos="5.0" />
	<poi id="rsu_junc_9433494208" type="rsu_intersection" color="0,255,0" lane="1348440718#1_0" pos="5.0" />
	<poi id="rsu_junc_9433494213" type="rsu_intersection" color="0,255,0" lane="395211762#3_0" pos="5.0" />
	<poi id="rsu_junc_9433494214" type="rsu_intersection" color="0,255,0" lane="395211762#1_0" pos="5.0" />
	<poi id="rsu_junc_9433494215" type="rsu_intersection" color="0,255,0" lane="395211760#5_0" pos="5.0" />
	<poi id="rsu_junc_9433494216" type="rsu_intersection" color="0,255,0" lane="395211760#3_0" pos="5.0" />
	<poi id="rsu_junc_9433494217" type="rsu_intersection" color="0,255,0" lane="395211763#3_0" pos="5.0" />
	<poi id="rsu_junc_9433494218" type="rsu_intersection" color="0,255,0" lane="395211763#1_0" pos="5.0" />
	<poi id="rsu_junc_9433494219" type="rsu_intersection" color="0,255,0" lane="395211761#3_0" pos="5.0" />
	<poi id="rsu_junc_9433494220" type="rsu_intersection" color="0,255,0" lane="395211761#1_0" pos="5.0" />
	<poi id="rsu_road_-915070931#3_0_250" type="rsu_road" color="255,255,0" lane="-915070931#3_0" pos="250.0" />
	<poi id="rsu_road_-915070931#4_0_250" type="rsu_road" color="255,255,0" lane="-915070931#4_0" pos="250.0" />
	<poi id="rsu_road_1006147286_0_250" type="rsu_road" color="255,255,0" lane="1006147286_0" pos="250.0" />
	<poi id="rsu_road_1006147287_0_250" type="rsu_road" color="255,255,0" lane="1006147287_0" pos="250.0" />
	<poi id="rsu_road_1029533950#1_0_250" type="rsu_road" color="255,255,0" lane="1029533950#1_0" pos="250.0" />
	<poi id="rsu_road_1029533950#1_0_750" type="rsu_road" color="255,255,0" lane="1029533950#1_0" pos="750.0" />
	<poi id="rsu_road_1029533950#1_0_1250" type="rsu_road" color="255,255,0" lane="1029533950#1_0" pos="1250.0" />
	<poi id="rsu_road_1029533951_0_250" type="rsu_road" color="255,255,0" lane="1029533951_0" pos="250.0" />
	<poi id="rsu_road_1029533951_0_750" type="rsu_road" color="255,255,0" lane="1029533951_0" pos="750.0" />
	<poi id="rsu_road_1029533951_0_1250" type="rsu_road" color="255,255,0" lane="1029533951_0" pos="1250.0" />
	<poi id="rsu_road_1036187470#0_0_250" type="rsu_road" color="255,255,0" lane="1036187470#0_0" pos="250.0" />
	<poi id="rsu_road_1036187470#2_0_250" type="rsu_road" color="255,255,0" lane="1036187470#2_0" pos="250.0" />
	<poi id="rsu_road_1036187475#1_0_250" type="rsu_road" color="255,255,0" lane="1036187475#1_0" pos="250.0" />
	<poi id="rsu_road_1036187476#1_0_250" type="rsu_road" color="255,255,0" lane="1036187476#1_0" pos="250.0" />
	<poi id="rsu_road_1036187477_0_250" type="rsu_road" color="255,255,0" lane="1036187477_0" pos="250.0" />
	<poi id="rsu_road_1036187478_0_250" type="rsu_road" color="255,255,0" lane="1036187478_0" pos="250.0" />
	<poi id="rsu_road_1036187478_0_750" type="rsu_road" color="255,255,0" lane="1036187478_0" pos="750.0" />
	<poi id="rsu_road_1036842933_0_250" type="rsu_road" color="255,255,0" lane="1036842933_0" pos="250.0" />
	<poi id="rsu_road_1036842933_0_750" type="rsu_road" color="255,255,0" lane="1036842933_0" pos="750.0" />
	<poi id="rsu_road_1036842934#3_0_250" type="rsu_road" color="255,255,0" lane="1036842934#3_0" pos="250.0" />
	<poi id="rsu_road_1036842934#3_0_750" type="rsu_road" color="255,255,0" lane="1036842934#3_0" pos="750.0" />
	<poi id="rsu_road_1039498386_0_250" type="rsu_road" color="255,255,0" lane="1039498386_0" pos="250.0" />
	<poi id="rsu_road_1044653778#3_0_250" type="rsu_road" color="255,255,0" lane="1044653778#3_0" pos="250.0" />
	<poi id="rsu_road_1044653781_0_250" type="rsu_road" color="255,255,0" lane="1044653781_0" pos="250.0" />
	<poi id="rsu_road_1044653783_0_250" type="rsu_road" color="255,255,0" lane="1044653783_0" pos="250.0" />
	<poi id="rsu_road_1044653787#2_0_250" type="rsu_road" color="255,255,0" lane="1044653787#2_0" pos="250.0" />
	<poi id="rsu_road_1044653788#0_0_250" type="rsu_road" color="255,255,0" lane="1044653788#0_0" pos="250.0" />
	<poi id="rsu_road_1044653822#0_0_250" type="rsu_road" color="255,255,0" lane="1044653822#0_0" pos="250.0" />
	<poi id="rsu_road_1044653859#5_0_250" type="rsu_road" color="255,255,0" lane="1044653859#5_0" pos="250.0" />
	<poi id="rsu_road_1044653862#5_0_250" type="rsu_road" color="255,255,0" lane="1044653862#5_0" pos="250.0" />
	<poi id="rsu_road_1044653863#0_0_250" type="rsu_road" color="255,255,0" lane="1044653863#0_0" pos="250.0" />
	<poi id="rsu_road_1053249287#0_0_250" type="rsu_road" color="255,255,0" lane="1053249287#0_0" pos="250.0" />
	<poi id="rsu_road_1053249289#0_0_250" type="rsu_road" color="255,255,0" lane="1053249289#0_0" pos="250.0" />
	<poi id="rsu_road_1053249300_0_250" type="rsu_road" color="255,255,0" lane="1053249300_0" pos="250.0" />
	<poi id="rsu_road_1053249304#0_0_250" type="rsu_road" color="255,255,0" lane="1053249304#0_0" pos="250.0" />
	<poi id="rsu_road_1053249304#4_0_250" type="rsu_road" color="255,255,0" lane="1053249304#4_0" pos="250.0" />
	<poi id="rsu_road_1390081692#0_0_250" type="rsu_road" color="255,255,0" lane="1390081692#0_0" pos="250.0" />
	<poi id="rsu_road_1390081692#1_0_250" type="rsu_road" color="255,255,0" lane="1390081692#1_0" pos="250.0" />
	<poi id="rsu_road_1390081693_0_250" type="rsu_road" color="255,255,0" lane="1390081693_0" pos="250.0" />
	<poi id="rsu_road_1390081694#1_0_250" type="rsu_road" color="255,255,0" lane="1390081694#1_0" pos="250.0" />
	<poi id="rsu_road_1390081694#2_0_250" type="rsu_road" color="255,255,0" lane="1390081694#2_0" pos="250.0" />
	<poi id="rsu_road_1390081695_0_250" type="rsu_road" color="255,255,0" lane="1390081695_0" pos="250.0" />
	<poi id="rsu_road_253642651_0_250" type="rsu_road" color="255,255,0" lane="253642651_0" pos="250.0" />
	<poi id="rsu_road_253642651_0_750" type="rsu_road" color="255,255,0" lane="253642651_0" pos="750.0" />
	<poi id="rsu_road_253642695#0_0_250" type="rsu_road" color="255,255,0" lane="253642695#0_0" pos="250.0" />
	<poi id="rsu_road_253642695#2_0_250" type="rsu_road" color="255,255,0" lane="253642695#2_0" pos="250.0" />
	<poi id="rsu_road_253642695#4_0_250" type="rsu_road" color="255,255,0" lane="253642695#4_0" pos="250.0" />
	<poi id="rsu_road_253642695#4_0_750" type="rsu_road" color="255,255,0" lane="253642695#4_0" pos="750.0" />
	<poi id="rsu_road_253642695#4_0_1250" type="rsu_road" color="255,255,0" lane="253642695#4_0" pos="1250.0" />
	<poi id="rsu_road_253642695#4_0_1750" type="rsu_road" color="255,255,0" lane="253642695#4_0" pos="1750.0" />
	<poi id="rsu_road_389194565#1_0_250" type="rsu_road" color="255,255,0" lane="389194565#1_0" pos="250.0" />
	<poi id="rsu_road_389201747_0_250" type="rsu_road" color="255,255,0" lane="389201747_0" pos="250.0" />
	<poi id="rsu_road_389347266_0_250" type="rsu_road" color="255,255,0" lane="389347266_0" pos="250.0" />
	<poi id="rsu_road_389881189#0_0_250" type="rsu_road" color="255,255,0" lane="389881189#0_0" pos="250.0" />
	<poi id="rsu_road_389881189#0_0_750" type="rsu_road" color="255,255,0" lane="389881189#0_0" pos="750.0" />
	<poi id="rsu_road_389881191#2_0_250" type="rsu_road" color="255,255,0" lane="389881191#2_0" pos="250.0" />
	<poi id="rsu_road_389881191#3_0_250" type="rsu_road" color="255,255,0" lane="389881191#3_0" pos="250.0" />
	<poi id="rsu_road_389881191#3_0_750" type="rsu_road" color="255,255,0" lane="389881191#3_0" pos="750.0" />
	<poi id="rsu_road_394057399#4_0_250" type="rsu_road" color="255,255,0" lane="394057399#4_0" pos="250.0" />
	<poi id="rsu_road_394057399#5_0_250" type="rsu_road" color="255,255,0" lane="394057399#5_0" pos="250.0" />
	<poi id="rsu_road_394057399#7_0_250" type="rsu_road" color="255,255,0" lane="394057399#7_0" pos="250.0" />
	<poi id="rsu_road_394074166#5_0_250" type="rsu_road" color="255,255,0" lane="394074166#5_0" pos="250.0" />
	<poi id="rsu_road_394074168#2_0_250" type="rsu_road" color="255,255,0" lane="394074168#2_0" pos="250.0" />
	<poi id="rsu_road_394074174#1_0_250" type="rsu_road" color="255,255,0" lane="394074174#1_0" pos="250.0" />
	<poi id="rsu_road_394282518_0_250" type="rsu_road" color="255,255,0" lane="394282518_0" pos="250.0" />
	<poi id="rsu_road_394282521#1_0_250" type="rsu_road" color="255,255,0" lane="394282521#1_0" pos="250.0" />
	<poi id="rsu_road_394282523#0_0_250" type="rsu_road" color="255,255,0" lane="394282523#0_0" pos="250.0" />
	<poi id="rsu_road_394282523#3_0_250" type="rsu_road" color="255,255,0" lane="394282523#3_0" pos="250.0" />
	<poi id="rsu_road_394287375_0_250" type="rsu_road" color="255,255,0" lane="394287375_0" pos="250.0" />
	<poi id="rsu_road_394287376_0_250" type="rsu_road" color="255,255,0" lane="394287376_0" pos="250.0" />
	<poi id="rsu_road_394289072#1_0_250" type="rsu_road" color="255,255,0" lane="394289072#1_0" pos="250.0" />
	<poi id="rsu_road_394289072#1_0_750" type="rsu_road" color="255,255,0" lane="394289072#1_0" pos="750.0" />
	<poi id="rsu_road_394289073#0_0_250" type="rsu_road" color="255,255,0" lane="394289073#0_0" pos="250.0" />
	<poi id="rsu_road_394289073#4_0_250" type="rsu_road" color="255,255,0" lane="394289073#4_0" pos="250.0" />
	<poi id="rsu_road_394289073#8_0_250" type="rsu_road" color="255,255,0" lane="394289073#8_0" pos="250.0" />
	<poi id="rsu_road_394289073#9_0_250" type="rsu_road" color="255,255,0" lane="394289073#9_0" pos="250.0" />
	<poi id="rsu_road_394289074#2_0_250" type="rsu_road" color="255,255,0" lane="394289074#2_0" pos="250.0" />
	<poi id="rsu_road_394289075#2_0_250" type="rsu_road" color="255,255,0" lane="394289075#2_0" pos="250.0" />
	<poi id="rsu_road_394291901#2_0_250" type="rsu_road" color="255,255,0" lane="394291901#2_0" pos="250.0" />
	<poi id="rsu_road_394291901#2_0_750" type="rsu_road" color="255,255,0" lane="394291901#2_0" pos="750.0" />
	<poi id="rsu_road_394291902#0_0_250" type="rsu_road" color="255,255,0" lane="394291902#0_0" pos="250.0" />
	<poi id="rsu_road_394291902#0_0_750" type="rsu_road" color="255,255,0" lane="394291902#0_0" pos="750.0" />
	<poi id="rsu_road_394291902#1_0_250" type="rsu_road" color="255,255,0" lane="394291902#1_0" pos="250.0" />
	<poi id="rsu_road_394294430#1_0_250" type="rsu_road" color="255,255,0" lane="394294430#1_0" pos="250.0" />
	<poi id="rsu_road_394294430#10_0_250" type="rsu_road" color="255,255,0" lane="394294430#10_0" pos="250.0" />
	<poi id="rsu_road_394294430#14_0_250" type="rsu_road" color="255,255,0" lane="394294430#14_0" pos="250.0" />
	<poi id="rsu_road_394294430#19_0_250" type="rsu_road" color="255,255,0" lane="394294430#19_0" pos="250.0" />
	<poi id="rsu_road_394294430#9_0_250" type="rsu_road" color="255,255,0" lane="394294430#9_0" pos="250.0" />
	<poi id="rsu_road_395211760#2_0_250" type="rsu_road" color="255,255,0" lane="395211760#2_0" pos="250.0" />
	<poi id="rsu_road_395211760#8_0_250" type="rsu_road" color="255,255,0" lane="395211760#8_0" pos="250.0" />
	<poi id="rsu_road_395211762#0_0_250" type="rsu_road" color="255,255,0" lane="395211762#0_0" pos="250.0" />
	<poi id="rsu_road_395211762#6_0_250" type="rsu_road" color="255,255,0" lane="395211762#6_0" pos="250.0" />
	<poi id="rsu_road_395211762#8_0_250" type="rsu_road" color="255,255,0" lane="395211762#8_0" pos="250.0" />
	<poi id="rsu_road_395486793_0_250" type="rsu_road" color="255,255,0" lane="395486793_0" pos="250.0" />
	<poi id="rsu_road_395486793_0_750" type="rsu_road" color="255,255,0" lane="395486793_0" pos="750.0" />
	<poi id="rsu_road_395674217#0_0_250" type="rsu_road" color="255,255,0" lane="395674217#0_0" pos="250.0" />
	<poi id="rsu_road_395674217#0_0_750" type="rsu_road" color="255,255,0" lane="395674217#0_0" pos="750.0" />
	<poi id="rsu_road_395674219#0_0_250" type="rsu_road" color="255,255,0" lane="395674219#0_0" pos="250.0" />
	<poi id="rsu_road_395674219#1_0_250" type="rsu_road" color="255,255,0" lane="395674219#1_0" pos="250.0" />
	<poi id="rsu_road_395674219#1_0_750" type="rsu_road" color="255,255,0" lane="395674219#1_0" pos="750.0" />
	<poi id="rsu_road_395680032_0_250" type="rsu_road" color="255,255,0" lane="395680032_0" pos="250.0" />
	<poi id="rsu_road_395680032_0_750" type="rsu_road" color="255,255,0" lane="395680032_0" pos="750.0" />
	<poi id="rsu_road_395680073_0_250" type="rsu_road" color="255,255,0" lane="395680073_0" pos="250.0" />
	<poi id="rsu_road_395680073_0_750" type="rsu_road" color="255,255,0" lane="395680073_0" pos="750.0" />
	<poi id="rsu_road_395680073_0_1250" type="rsu_road" color="255,255,0" lane="395680073_0" pos="1250.0" />
	<poi id="rsu_road_395680073_0_1750" type="rsu_road" color="255,255,0" lane="395680073_0" pos="1750.0" />
	<poi id="rsu_road_395680073_0_2250" type="rsu_road" color="255,255,0" lane="395680073_0" pos="2250.0" />
	<poi id="rsu_road_395684221#0_0_250" type="rsu_road" color="255,255,0" lane="395684221#0_0" pos="250.0" />
	<poi id="rsu_road_395684221#5_0_250" type="rsu_road" color="255,255,0" lane="395684221#5_0" pos="250.0" />
	<poi id="rsu_road_395684221#7_0_250" type="rsu_road" color="255,255,0" lane="395684221#7_0" pos="250.0" />
	<poi id="rsu_road_395684224_0_250" type="rsu_road" color="255,255,0" lane="395684224_0" pos="250.0" />
	<poi id="rsu_road_395684224_0_750" type="rsu_road" color="255,255,0" lane="395684224_0" pos="750.0" />
	<poi id="rsu_road_395684232#1_0_250" type="rsu_road" color="255,255,0" lane="395684232#1_0" pos="250.0" />
	<poi id="rsu_road_395684232#10_0_250" type="rsu_road" color="255,255,0" lane="395684232#10_0" pos="250.0" />
	<poi id="rsu_road_395684232#11_0_250" type="rsu_road" color="255,255,0" lane="395684232#11_0" pos="250.0" />
	<poi id="rsu_road_395684232#14_0_250" type="rsu_road" color="255,255,0" lane="395684232#14_0" pos="250.0" />
	<poi id="rsu_road_395684232#15_0_250" type="rsu_road" color="255,255,0" lane="395684232#15_0" pos="250.0" />
	<poi id="rsu_road_395684232#6_0_250" type="rsu_road" color="255,255,0" lane="395684232#6_0" pos="250.0" />
	<poi id="rsu_road_395689275#0_0_250" type="rsu_road" color="255,255,0" lane="395689275#0_0" pos="250.0" />
	<poi id="rsu_road_395689284#1_0_250" type="rsu_road" color="255,255,0" lane="395689284#1_0" pos="250.0" />
	<poi id="rsu_road_395689285#2_0_250" type="rsu_road" color="255,255,0" lane="395689285#2_0" pos="250.0" />
	<poi id="rsu_road_395689292#4_0_250" type="rsu_road" color="255,255,0" lane="395689292#4_0" pos="250.0" />
	<poi id="rsu_road_395689301#0_0_250" type="rsu_road" color="255,255,0" lane="395689301#0_0" pos="250.0" />
	<poi id="rsu_road_395689301#0_0_750" type="rsu_road" color="255,255,0" lane="395689301#0_0" pos="750.0" />
	<poi id="rsu_road_395689301#1_0_250" type="rsu_road" color="255,255,0" lane="395689301#1_0" pos="250.0" />
	<poi id="rsu_road_395690614_0_250" type="rsu_road" color="255,255,0" lane="395690614_0" pos="250.0" />
	<poi id="rsu_road_395909416_0_250" type="rsu_road" color="255,255,0" lane="395909416_0" pos="250.0" />
	<poi id="rsu_road_395909417_0_250" type="rsu_road" color="255,255,0" lane="395909417_0" pos="250.0" />
	<poi id="rsu_road_395909417_0_750" type="rsu_road" color="255,255,0" lane="395909417_0" pos="750.0" />
	<poi id="rsu_road_395909419#2_0_250" type="rsu_road" color="255,255,0" lane="395909419#2_0" pos="250.0" />
	<poi id="rsu_road_395909419#3_0_250" type="rsu_road" color="255,255,0" lane="395909419#3_0" pos="250.0" />
	<poi id="rsu_road_395909420_0_250" type="rsu_road" color="255,255,0" lane="395909420_0" pos="250.0" />
	<poi id="rsu_road_395910143#1_0_250" type="rsu_road" color="255,255,0" lane="395910143#1_0" pos="250.0" />
	<poi id="rsu_road_395910150#0_0_250" type="rsu_road" color="255,255,0" lane="395910150#0_0" pos="250.0" />
	<poi id="rsu_road_395910441#5_0_250" type="rsu_road" color="255,255,0" lane="395910441#5_0" pos="250.0" />
	<poi id="rsu_road_395910441#6_0_250" type="rsu_road" color="255,255,0" lane="395910441#6_0" pos="250.0" />
	<poi id="rsu_road_497493911_0_250" type="rsu_road" color="255,255,0" lane="497493911_0" pos="250.0" />
	<poi id="rsu_road_497493914_0_250" type="rsu_road" color="255,255,0" lane="497493914_0" pos="250.0" />
	<poi id="rsu_road_497511724_0_250" type="rsu_road" color="255,255,0" lane="497511724_0" pos="250.0" />
	<poi id="rsu_road_497511725_0_250" type="rsu_road" color="255,255,0" lane="497511725_0" pos="250.0" />
	<poi id="rsu_road_497511725_0_750" type="rsu_road" color="255,255,0" lane="497511725_0" pos="750.0" />
	<poi id="rsu_road_497511727#1_0_250" type="rsu_road" color="255,255,0" lane="497511727#1_0" pos="250.0" />
	<poi id="rsu_road_497511728#0_0_250" type="rsu_road" color="255,255,0" lane="497511728#0_0" pos="250.0" />
	<poi id="rsu_road_497511728#0_0_750" type="rsu_road" color="255,255,0" lane="497511728#0_0" pos="750.0" />
	<poi id="rsu_road_497511728#1_0_250" type="rsu_road" color="255,255,0" lane="497511728#1_0" pos="250.0" />
	<poi id="rsu_road_497511733_0_250" type="rsu_road" color="255,255,0" lane="497511733_0" pos="250.0" />
	<poi id="rsu_road_497511734_0_250" type="rsu_road" color="255,255,0" lane="497511734_0" pos="250.0" />
	<poi id="rsu_road_526790514_0_250" type="rsu_road" color="255,255,0" lane="526790514_0" pos="250.0" />
	<poi id="rsu_road_526790516_0_250" type="rsu_road" color="255,255,0" lane="526790516_0" pos="250.0" />
	<poi id="rsu_road_548408518#1_0_250" type="rsu_road" color="255,255,0" lane="548408518#1_0" pos="250.0" />
	<poi id="rsu_road_548408518#1_0_750" type="rsu_road" color="255,255,0" lane="548408518#1_0" pos="750.0" />
	<poi id="rsu_road_548408532_0_250" type="rsu_road" color="255,255,0" lane="548408532_0" pos="250.0" />
	<poi id="rsu_road_548408534_0_250" type="rsu_road" color="255,255,0" lane="548408534_0" pos="250.0" />
	<poi id="rsu_road_548408538#8_0_250" type="rsu_road" color="255,255,0" lane="548408538#8_0" pos="250.0" />
	<poi id="rsu_road_548408555#0_0_250" type="rsu_road" color="255,255,0" lane="548408555#0_0" pos="250.0" />
	<poi id="rsu_road_548408555#0_0_750" type="rsu_road" color="255,255,0" lane="548408555#0_0" pos="750.0" />
	<poi id="rsu_road_548408555#0_0_1250" type="rsu_road" color="255,255,0" lane="548408555#0_0" pos="1250.0" />
	<poi id="rsu_road_548408555#0_0_1750" type="rsu_road" color="255,255,0" lane="548408555#0_0" pos="1750.0" />
	<poi id="rsu_road_548408555#6_0_250" type="rsu_road" color="255,255,0" lane="548408555#6_0" pos="250.0" />
	<poi id="rsu_road_548408555#7_0_250" type="rsu_road" color="255,255,0" lane="548408555#7_0" pos="250.0" />
	<poi id="rsu_road_548408555#9_0_250" type="rsu_road" color="255,255,0" lane="548408555#9_0" pos="250.0" />
	<poi id="rsu_road_548408556#0_0_250" type="rsu_road" color="255,255,0" lane="548408556#0_0" pos="250.0" />
	<poi id="rsu_road_548408556#11_0_250" type="rsu_road" color="255,255,0" lane="548408556#11_0" pos="250.0" />
	<poi id="rsu_road_548408556#12_0_250" type="rsu_road" color="255,255,0" lane="548408556#12_0" pos="250.0" />
	<poi id="rsu_road_548408556#12_0_750" type="rsu_road" color="255,255,0" lane="548408556#12_0" pos="750.0" />
	<poi id="rsu_road_548408556#3_0_250" type="rsu_road" color="255,255,0" lane="548408556#3_0" pos="250.0" />
	<poi id="rsu_road_548408590#1_0_250" type="rsu_road" color="255,255,0" lane="548408590#1_0" pos="250.0" />
	<poi id="rsu_road_548408590#1_0_750" type="rsu_road" color="255,255,0" lane="548408590#1_0" pos="750.0" />
	<poi id="rsu_road_548408590#10_0_250" type="rsu_road" color="255,255,0" lane="548408590#10_0" pos="250.0" />
	<poi id="rsu_road_548408590#11_0_250" type="rsu_road" color="255,255,0" lane="548408590#11_0" pos="250.0" />
	<poi id="rsu_road_548408590#5_0_250" type="rsu_road" color="255,255,0" lane="548408590#5_0" pos="250.0" />
	<poi id="rsu_road_548408590#6_0_250" type="rsu_road" color="255,255,0" lane="548408590#6_0" pos="250.0" />
	<poi id="rsu_road_548414019#0_0_250" type="rsu_road" color="255,255,0" lane="548414019#0_0" pos="250.0" />
	<poi id="rsu_road_548414020#3_0_250" type="rsu_road" color="255,255,0" lane="548414020#3_0" pos="250.0" />
	<poi id="rsu_road_548423262#0_0_250" type="rsu_road" color="255,255,0" lane="548423262#0_0" pos="250.0" />
	<poi id="rsu_road_548423262#0_0_750" type="rsu_road" color="255,255,0" lane="548423262#0_0" pos="750.0" />
	<poi id="rsu_road_548423284_0_250" type="rsu_road" color="255,255,0" lane="548423284_0" pos="250.0" />